
  CDK     04252213472D

 56 64  0  0  0  0  0  0  0  0999 V2000
   -8.0357    7.1110    0.0000 O   0  0  0  0  0  0  0  0  0  0  0  0
   -7.4256    5.7406    0.0000 C   0  0  0  0  0  0  0  0  0  0  0  0
   -5.9338    5.5838    0.0000 C   0  0  0  0  0  0  0  0  0  0  0  0
   -5.3237    4.2135    0.0000 C   0  0  0  0  0  0  0  0  0  0  0  0
   -3.8971    3.7500    0.0000 C   0  0  0  0  0  0  0  0  0  0  0  0
   -2.5981    4.5000    0.0000 C   0  0  0  0  0  0  0  0  0  0  0  0
   -1.2990    3.7500    0.0000 C   0  0  0  0  0  0  0  0  0  0  0  0
   -1.2990    2.2500    0.0000 C   0  0  0  0  0  0  0  0  0  0  0  0
   -2.5981    1.5000    0.0000 C   0  0  0  0  0  0  0  0  0  0  0  0
   -2.5981   -0.0000    0.0000 C   0  0  0  0  0  0  0  0  0  0  0  0
   -1.2990   -0.7500    0.0000 N   0  0  0  0  0  0  0  0  0  0  0  0
   -1.2990   -2.2500    0.0000 C   0  0  0  0  0  0  0  0  0  0  0  0
    0.0000   -3.0000    0.0000 C   0  0  0  0  0  0  0  0  0  0  0  0
   -0.0000   -4.5000    0.0000 C   0  0  0  0  0  0  0  0  0  0  0  0
    1.2990   -5.2500    0.0000 C   0  0  0  0  0  0  0  0  0  0  0  0
    1.2990   -6.7500    0.0000 C   0  0  0  0  0  0  0  0  0  0  0  0
    2.5981   -7.5000    0.0000 C   0  0  0  0  0  0  0  0  0  0  0  0
    3.8976   -6.7492    0.0000 C   0  0  0  0  0  0  0  0  0  0  0  0
    5.1966   -7.4992    0.0000 C   0  0  0  0  0  0  0  0  0  0  0  0
    5.1962   -9.0000    0.0000 C   0  0  0  0  0  0  0  0  0  0  0  0
    3.8966   -9.7508    0.0000 C   0  0  0  0  0  0  0  0  0  0  0  0
    2.5976   -9.0008    0.0000 C   0  0  0  0  0  0  0  0  0  0  0  0
    1.2990   -2.2500    0.0000 C   0  0  0  0  0  0  0  0  0  0  0  0
    1.2990   -0.7500    0.0000 C   0  0  0  0  0  0  0  0  0  0  0  0
    0.0000    0.0000    0.0000 C   0  0  0  0  0  0  0  0  0  0  0  0
    0.0000    1.5000    0.0000 C   0  0  0  0  0  0  0  0  0  0  0  0
    1.4772    1.2395    0.0000 O   0  0  0  0  0  0  0  0  0  0  0  0
    0.5130    2.9095    0.0000 C   0  0  0  0  0  0  0  0  0  0  0  0
   -3.8971    2.2500    0.0000 C   0  0  0  0  0  0  0  0  0  0  0  0
   -5.3237    1.7865    0.0000 C   0  0  0  0  0  0  0  0  0  0  0  0
   -6.2054    3.0000    0.0000 C   0  0  0  0  0  0  0  0  0  0  0  0
   -7.6972    3.1568    0.0000 C   0  0  0  0  0  0  0  0  0  0  0  0
   -7.0871    1.7865    0.0000 C   0  0  0  0  0  0  0  0  0  0  0  0
   -8.5788    1.9433    0.0000 C   0  0  0  0  0  0  0  0  0  0  0  0
  -10.0706    2.1001    0.0000 C   0  0  0  0  0  0  0  0  0  0  0  0
   -9.6071    0.6735    0.0000 C   0  0  0  0  0  0  0  0  0  0  0  0
  -10.8206   -0.2082    0.0000 C   0  0  0  0  0  0  0  0  0  0  0  0
  -12.0341    0.6735    0.0000 C   0  0  0  0  0  0  0  0  0  0  0  0
  -13.4607    0.2099    0.0000 C   0  0  0  0  0  0  0  0  0  0  0  0
  -14.5754    1.2136    0.0000 C   0  0  0  0  0  0  0  0  0  0  0  0
  -14.2636    2.6809    0.0000 C   0  0  0  0  0  0  0  0  0  0  0  0
  -15.3792    3.6848    0.0000 C   0  0  0  0  0  0  0  0  0  0  0  0
  -15.0674    5.1520    0.0000 C   0  0  0  0  0  0  0  0  0  0  0  0
  -13.6398    5.6153    0.0000 C   0  0  0  0  0  0  0  0  0  0  0  0
  -12.5242    4.6114    0.0000 C   0  0  0  0  0  0  0  0  0  0  0  0
  -12.8361    3.1442    0.0000 C   0  0  0  0  0  0  0  0  0  0  0  0
  -16.0020    0.7501    0.0000 C   0  0  0  0  0  0  0  0  0  0  0  0
  -17.1168    1.7538    0.0000 C   0  0  0  0  0  0  0  0  0  0  0  0
  -18.5433    1.2903    0.0000 C   0  0  0  0  0  0  0  0  0  0  0  0
  -19.6581    2.2940    0.0000 O   0  0  0  0  0  0  0  0  0  0  0  0
  -21.0846    1.8305    0.0000 C   0  0  0  0  0  0  0  0  0  0  0  0
  -11.5706    2.1001    0.0000 C   0  0  0  0  0  0  0  0  0  0  0  0
  -10.6807    3.4704    0.0000 C   0  0  0  0  0  0  0  0  0  0  0  0
  -12.1725    3.6272    0.0000 O   0  0  0  0  0  0  0  0  0  0  0  0
   -9.7990    4.6839    0.0000 C   0  0  0  0  0  0  0  0  0  0  0  0
   -8.3073    4.5271    0.0000 C   0  0  0  0  0  0  0  0  0  0  0  0
  1  2  1  0  0  0  0
  2  3  1  0  0  0  0
  3  4  1  0  0  0  0
  4  5  1  0  0  0  0
  5  6  1  0  0  0  0
  6  7  1  0  0  0  0
  7  8  1  0  0  0  0
  8  9  1  0  0  0  0
  9 10  1  0  0  0  0
 10 11  1  0  0  0  0
 11 12  1  0  0  0  0
 12 13  1  0  0  0  0
 13 14  1  0  0  0  0
 14 15  1  0  0  0  0
 15 16  1  0  0  0  0
 16 17  1  0  0  0  0
 17 18  1  0  0  0  0
 18 19  2  0  0  0  0
 19 20  1  0  0  0  0
 20 21  2  0  0  0  0
 21 22  1  0  0  0  0
 17 22  2  0  0  0  0
 13 23  1  0  0  0  0
 23 24  1  0  0  0  0
 24 25  1  0  0  0  0
 11 25  1  0  0  0  0
 25 26  1  0  0  0  0
  8 26  1  0  0  0  0
 26 27  1  0  0  0  0
 26 28  1  0  0  0  0
  9 29  1  0  0  0  0
  5 29  1  0  0  0  0
 29 30  1  0  0  0  0
 30 31  1  0  0  0  0
  4 31  1  0  0  0  0
 31 32  1  0  0  0  0
 32 33  1  0  0  0  0
 32 34  1  0  0  0  0
 34 35  1  0  0  0  0
 35 36  1  0  0  0  0
 36 37  1  0  0  0  0
 37 38  1  0  0  0  0
 38 39  1  0  0  0  0
 39 40  1  0  0  0  0
 40 41  1  0  0  0  0
 41 42  1  0  0  0  0
 42 43  2  0  0  0  0
 43 44  1  0  0  0  0
 44 45  2  0  0  0  0
 45 46  1  0  0  0  0
 41 46  2  0  0  0  0
 40 47  1  0  0  0  0
 47 48  1  0  0  0  0
 48 49  1  0  0  0  0
 49 50  1  0  0  0  0
 50 51  1  0  0  0  0
 38 52  1  0  0  0  0
 35 52  1  0  0  0  0
 35 53  1  0  0  0  0
 53 54  1  0  0  0  0
 53 55  1  0  0  0  0
 55 56  1  0  0  0  0
  2 56  1  0  0  0  0
 32 56  1  0  0  0  0
M  END
> <coconut_id>
CNP0478798

> <inchi>
InChI=1S/C51H75NO4/c1-49-33-51(24-23-36(30-51)26-38(18-11-25-56-3)37-16-8-5-9-17-37)48(54)29-45(49)46(53)28-41-39-20-21-43-42(40(39)27-44(41)49)32-52-31-35(19-22-47(52)50(43,2)55)15-10-14-34-12-6-4-7-13-34/h4-9,12-13,16-17,35-36,38-48,53-55H,10-11,14-15,18-33H2,1-3H3

> <inchikey>
ZZZUHNOMGBMETN-UHFFFAOYSA-N

> <SMILES>
OC1CC2C3CCC4C(CN5CC(CCCC=6C=CC=CC6)CCC5C4(O)C)C3CC2C7(C)CC8(CCC(CC(C=9C=CC=CC9)CCCOC)C8)C(O)CC17

> <sugar_free_smiles>
OC1CC2C3CCC4C(CN5CC(CCCC=6C=CC=CC6)CCC5C4(O)C)C3CC2C7(C)CC8(CCC(CC(C=9C=CC=CC9)CCCOC)C8)C(O)CC17

> <molecular_formula>
C51H75NO4

> <molecular_weight>
766.1474101904355

> <citationDOI>
[]

> <textTaxa>
[notax]

> <name>


> <synonyms>
[]

> <NPL_score>
2.0590800297502265

> <number_of_carbons>
51

> <number_of_nitrogens>
1

> <number_of_oxygens>
4

> <number_of_rings>


> <total_atom_number>
131

> <bond_count>
64

> <found_in_databases>
[supernatural2]

> <murko_framework>
c1ccc(cc1)CCCC2CN3CC4C(CCC5C6CCC7CCC8(CCC(CCc9ccccc9)C8)CC7C6CC45)CC3CC2

> <alogp>
8.54209999999999

> <apol>
144.07747500000005

> <topoPSA>
73.16000000000001

