
  CDK     04252213472D

 28 27  0  0  0  0  0  0  0  0999 V2000
    3.1274    2.8726    0.0000 O   0  0  0  0  0  0  0  0  0  0  0  0
    3.1274    4.3726    0.0000 C   0  0  0  0  0  0  0  0  0  0  0  0
    4.4264    5.1226    0.0000 N   0  0  0  0  0  0  0  0  0  0  0  0
    5.7255    4.3726    0.0000 C   0  0  0  0  0  0  0  0  0  0  0  0
    7.0245    5.1226    0.0000 C   0  0  0  0  0  0  0  0  0  0  0  0
    8.3236    4.3726    0.0000 N   0  0  0  0  0  0  0  0  0  0  0  0
    9.6226    5.1226    0.0000 C   0  0  0  0  0  0  0  0  0  0  0  0
    9.6226    6.6226    0.0000 O   0  0  0  0  0  0  0  0  0  0  0  0
   10.9216    4.3726    0.0000 C   0  0  0  0  0  0  0  0  0  0  0  0
    9.9575    3.2235    0.0000 F   0  0  0  0  0  0  0  0  0  0  0  0
   11.8858    3.2235    0.0000 F   0  0  0  0  0  0  0  0  0  0  0  0
   12.2207    5.1226    0.0000 C   0  0  0  0  0  0  0  0  0  0  0  0
   13.1849    6.2717    0.0000 F   0  0  0  0  0  0  0  0  0  0  0  0
   11.2565    6.2717    0.0000 F   0  0  0  0  0  0  0  0  0  0  0  0
   13.5197    4.3726    0.0000 C   0  0  0  0  0  0  0  0  0  0  0  0
   14.2697    5.6716    0.0000 F   0  0  0  0  0  0  0  0  0  0  0  0
   12.7697    3.0736    0.0000 F   0  0  0  0  0  0  0  0  0  0  0  0
   14.8187    3.6226    0.0000 F   0  0  0  0  0  0  0  0  0  0  0  0
    1.8284    5.1226    0.0000 C   0  0  0  0  0  0  0  0  0  0  0  0
    2.7925    6.2717    0.0000 F   0  0  0  0  0  0  0  0  0  0  0  0
    0.8642    6.2717    0.0000 F   0  0  0  0  0  0  0  0  0  0  0  0
    0.5293    4.3726    0.0000 C   0  0  0  0  0  0  0  0  0  0  0  0
   -0.4349    3.2235    0.0000 F   0  0  0  0  0  0  0  0  0  0  0  0
    1.4935    3.2235    0.0000 F   0  0  0  0  0  0  0  0  0  0  0  0
   -0.7697    5.1226    0.0000 C   0  0  0  0  0  0  0  0  0  0  0  0
   -0.0197    6.4216    0.0000 F   0  0  0  0  0  0  0  0  0  0  0  0
   -2.0687    5.8726    0.0000 F   0  0  0  0  0  0  0  0  0  0  0  0
   -1.5197    3.8236    0.0000 F   0  0  0  0  0  0  0  0  0  0  0  0
  1  2  2  0  0  0  0
  2  3  1  0  0  0  0
  3  4  1  0  0  0  0
  4  5  1  0  0  0  0
  5  6  1  0  0  0  0
  6  7  2  0  0  0  0
  7  8  1  4  0  0  0
  7  9  1  0  0  0  0
  9 10  1  0  0  0  0
  9 11  1  0  0  0  0
  9 12  1  0  0  0  0
 12 13  1  0  0  0  0
 12 14  1  0  0  0  0
 12 15  1  0  0  0  0
 15 16  1  0  0  0  0
 15 17  1  0  0  0  0
 15 18  1  0  0  0  0
  2 19  1  0  0  0  0
 19 20  1  0  0  0  0
 19 21  1  0  0  0  0
 19 22  1  0  0  0  0
 22 23  1  0  0  0  0
 22 24  1  0  0  0  0
 22 25  1  0  0  0  0
 25 26  1  0  0  0  0
 25 27  1  0  0  0  0
 25 28  1  0  0  0  0
M  END
> <coconut_id>
CNP0478794

> <inchi>
InChI=1S/C10H6F14N2O2/c11-5(12,7(15,16)9(19,20)21)3(27)25-1-2-26-4(28)6(13,14)8(17,18)10(22,23)24/h1-2H2,(H,25,27)(H,26,28)

> <inchikey>
ZZYRMCDLVWNXGP-UHFFFAOYSA-N

> <SMILES>
O=C(NCCN=C(O)C(F)(F)C(F)(F)C(F)(F)F)C(F)(F)C(F)(F)C(F)(F)F

> <sugar_free_smiles>
O=C(NCCN=C(O)C(F)(F)C(F)(F)C(F)(F)F)C(F)(F)C(F)(F)C(F)(F)F

> <molecular_formula>
C10H6F14N2O2

> <molecular_weight>
452.1448648400455

> <citationDOI>
[]

> <textTaxa>
[notax]

> <name>


> <synonyms>
[]

> <NPL_score>
-0.1356465028033494

> <number_of_carbons>
10

> <number_of_nitrogens>
2

> <number_of_oxygens>
2

> <number_of_rings>


> <total_atom_number>
34

> <bond_count>
27

> <found_in_databases>
[supernatural2]

> <murko_framework>


> <alogp>
3.0218000000000003

> <apol>
33.202757999999996

> <topoPSA>
61.69

