
  CDK     04252213472D

 17 19  0  0  0  0  0  0  0  0999 V2000
    1.7585    3.3931    0.0000 N   0  0  0  0  0  0  0  0  0  0  0  0
    2.9728    2.5111    0.0000 C   0  0  0  0  0  0  0  0  0  0  0  0
    2.8158    1.0194    0.0000 N   0  0  0  0  0  0  0  0  0  0  0  0
    1.4444    0.4096    0.0000 C   0  0  0  0  0  0  0  0  0  0  0  0
    1.2874   -1.0822    0.0000 N   0  0  0  0  0  0  0  0  0  0  0  0
    0.2301    1.2915    0.0000 C   0  0  0  0  0  0  0  0  0  0  0  0
    0.3871    2.7833    0.0000 C   0  0  0  0  0  0  0  0  0  0  0  0
   -1.1403    0.6814    0.0000 C   0  0  0  0  0  0  0  0  0  0  0  0
   -2.4393    1.4314    0.0000 N   0  0  0  0  0  0  0  0  0  0  0  0
   -3.5540    0.4277    0.0000 O   0  0  0  0  0  0  0  0  0  0  0  0
   -2.9439   -0.9426    0.0000 C   0  0  0  0  0  0  0  0  0  0  0  0
   -1.4521   -0.7858    0.0000 N   0  0  0  0  0  0  0  0  0  0  0  0
   -3.6939   -2.2416    0.0000 C   0  0  0  0  0  0  0  0  0  0  0  0
   -3.0860   -3.6087    0.0000 N   0  0  0  0  0  0  0  0  0  0  0  0
   -4.1994   -4.6171    0.0000 C   0  0  0  0  0  0  0  0  0  0  0  0
   -5.4984   -3.8671    0.0000 C   0  0  0  0  0  0  0  0  0  0  0  0
   -5.1818   -2.3987    0.0000 C   0  0  0  0  0  0  0  0  0  0  0  0
  1  2  1  0  0  0  0
  2  3  2  0  0  0  0
  3  4  1  0  0  0  0
  4  5  1  0  0  0  0
  4  6  2  0  0  0  0
  6  7  1  0  0  0  0
  1  7  2  0  0  0  0
  6  8  1  0  0  0  0
  8  9  2  0  0  0  0
  9 10  1  0  0  0  0
 10 11  1  0  0  0  0
 11 12  2  0  0  0  0
  8 12  1  0  0  0  0
 11 13  1  0  0  0  0
 13 14  1  0  0  0  0
 14 15  1  0  0  0  0
 15 16  1  0  0  0  0
 16 17  1  0  0  0  0
 13 17  1  0  0  0  0
M  END
> <coconut_id>
CNP0478789

> <inchi>
InChI=1S/C10H12N6O/c11-8-6(4-12-5-14-8)9-15-10(17-16-9)7-2-1-3-13-7/h4-5,7,13H,1-3H2,(H2,11,12,14)

> <inchikey>
ZZXGPXHOIOCZQR-UHFFFAOYSA-N

> <SMILES>
N=1C=NC(N)=C(C1)C2=NOC(=N2)C3NCCC3

> <sugar_free_smiles>
N=1C=NC(N)=C(C1)C2=NOC(=N2)C3NCCC3

> <molecular_formula>
C10H12N6O

> <molecular_weight>
232.24227218357484

> <citationDOI>
[]

> <textTaxa>
[notax]

> <name>


> <synonyms>
[]

> <NPL_score>
0.6592226082432995

> <number_of_carbons>
10

> <number_of_nitrogens>
6

> <number_of_oxygens>
1

> <number_of_rings>


> <total_atom_number>
29

> <bond_count>
19

> <found_in_databases>
[supernatural2]

> <murko_framework>
n1cncc(c1)-c2noc(n2)C3NCCC3

> <alogp>
-0.25180000000000013

> <apol>
33.003516000000005

> <topoPSA>
96.72

