
  CDK     04252213472D

 48 53  0  0  0  0  0  0  0  0999 V2000
    0.0000    3.0000    0.0000 O   0  0  0  0  0  0  0  0  0  0  0  0
   -0.0000    1.5000    0.0000 C   0  0  0  0  0  0  0  0  0  0  0  0
    1.3000    0.7500    0.0000 C   0  0  0  0  0  3  0  0  0  0  0  0
    2.6000    1.5000    0.0000 C   0  0  0  0  0  3  0  0  0  0  0  0
    3.9000    0.7500    0.0000 C   0  0  0  0  0  3  0  0  0  0  0  0
    5.1989    1.5002    0.0000 O   0  0  0  0  0  0  0  0  0  0  0  0
    6.4981    0.7504    0.0000 C   0  0  0  0  0  0  0  0  0  0  0  0
    3.9000   -0.7500    0.0000 C   0  0  0  0  0  3  0  0  0  0  0  0
    2.6000   -1.5000    0.0000 C   0  0  0  0  0  3  0  0  0  0  0  0
    2.6000   -3.0000    0.0000 O   0  0  0  0  0  0  0  0  0  0  0  0
    3.8990   -3.7500    0.0000 C   0  0  0  0  0  0  0  0  0  0  0  0
    3.9043   -5.2682    0.0000 O   0  0  0  0  0  0  0  0  0  0  0  0
    5.2012   -6.0235    0.0000 C   0  0  0  0  0  0  0  0  0  0  0  0
    5.1958   -7.5235    0.0000 C   0  0  0  0  0  0  0  0  0  0  0  0
    6.4921   -8.2782    0.0000 O   0  0  0  0  0  0  0  0  0  0  0  0
    6.4941   -5.2830    0.0000 C   0  0  0  0  0  0  0  0  0  0  0  0
    7.7885   -6.0410    0.0000 O   0  0  0  0  0  0  0  0  0  0  0  0
    6.5075   -3.7772    0.0000 C   0  0  0  0  0  0  0  0  0  0  0  0
    7.8116   -3.0360    0.0000 O   0  0  0  0  0  0  0  0  0  0  0  0
    5.1920   -3.0095    0.0000 C   0  0  0  0  0  0  0  0  0  0  0  0
    5.1981   -1.5095    0.0000 O   0  0  0  0  0  0  0  0  0  0  0  0
    1.3000   -0.7500    0.0000 C   0  0  0  0  0  3  0  0  0  0  0  0
   -0.0000   -1.5000    0.0000 C   0  0  0  0  0  0  0  0  0  0  0  0
   -0.0000   -3.0000    0.0000 O   0  0  0  0  0  0  0  0  0  0  0  0
   -1.3000   -0.7500    0.0000 C   0  0  0  0  0  3  0  0  0  0  0  0
   -2.6000   -1.5000    0.0000 C   0  0  0  0  0  3  0  0  0  0  0  0
   -2.6000   -3.0000    0.0000 O   0  0  0  0  0  0  0  0  0  0  0  0
   -3.9000   -0.7500    0.0000 C   0  0  0  0  0  3  0  0  0  0  0  0
   -3.9000    0.7500    0.0000 C   0  0  0  0  0  3  0  0  0  0  0  0
   -2.6000    1.5000    0.0000 C   0  0  0  0  0  3  0  0  0  0  0  0
   -1.3000    0.7500    0.0000 C   0  0  0  0  0  3  0  0  0  0  0  0
   -5.1989    1.5002    0.0000 C   0  0  0  0  0  0  0  0  0  0  0  0
   -6.4981    0.7504    0.0000 C   0  0  0  0  0  0  0  0  0  0  0  0
   -7.7970    1.5006    0.0000 C   0  0  0  0  0  3  0  0  0  0  0  0
   -7.7970    3.0015    0.0000 C   0  0  0  0  0  3  0  0  0  0  0  0
   -9.0963    3.7527    0.0000 C   0  0  0  0  0  3  0  0  0  0  0  0
  -10.3956    3.0031    0.0000 C   0  0  0  0  0  3  0  0  0  0  0  0
  -11.6945    3.7533    0.0000 N   0  0  0  0  0  0  0  0  0  0  0  0
  -10.3956    1.5023    0.0000 N   0  3  0  0  0  0  0  0  0  0  0  0
   -9.0963    0.7510    0.0000 C   0  0  0  0  0  3  0  0  0  0  0  0
   -5.1989   -1.5002    0.0000 C   0  0  0  0  0  0  0  0  0  0  0  0
   -5.1987   -3.0002    0.0000 C   0  0  0  0  0  3  0  0  0  0  0  0
   -6.4982   -3.7510    0.0000 C   0  0  0  0  0  3  0  0  0  0  0  0
   -6.4937   -5.2432    0.0000 C   0  0  0  0  0  3  0  0  0  0  0  0
   -5.1946   -5.9932    0.0000 C   0  0  0  0  0  3  0  0  0  0  0  0
   -3.9001   -5.2510    0.0000 C   0  0  0  0  0  3  0  0  0  0  0  0
   -2.6023   -6.0032    0.0000 O   0  0  0  0  0  0  0  0  0  0  0  0
   -3.8996   -3.7502    0.0000 C   0  0  0  0  0  3  0  0  0  0  0  0
  1  2  2  0  0  0  0
  2  3  1  0  0  0  0
  3  4  1  0  0  0  0
  4  5  1  0  0  0  0
  5  6  1  0  0  0  0
  6  7  1  0  0  0  0
  5  8  1  0  0  0  0
  8  9  1  0  0  0  0
  9 10  1  0  0  0  0
 10 11  1  0  0  0  0
 11 12  1  0  0  0  0
 12 13  1  0  0  0  0
 13 14  1  0  0  0  0
 14 15  1  0  0  0  0
 13 16  1  0  0  0  0
 16 17  1  0  0  0  0
 16 18  1  0  0  0  0
 18 19  1  0  0  0  0
 18 20  1  0  0  0  0
 11 20  1  0  0  0  0
 20 21  1  0  0  0  0
  9 22  1  0  0  0  0
  3 22  1  0  0  0  0
 22 23  1  0  0  0  0
 23 24  2  0  0  0  0
 23 25  1  0  0  0  0
 25 26  1  0  0  0  0
 26 27  1  0  0  0  0
 26 28  1  0  0  0  0
 28 29  1  0  0  0  0
 29 30  1  0  0  0  0
 30 31  1  0  0  0  0
  2 31  1  0  0  0  0
 25 31  1  0  0  0  0
 29 32  1  0  0  0  0
 32 33  1  0  0  0  0
 33 34  1  0  0  0  0
 34 35  1  0  0  0  0
 35 36  1  0  0  0  0
 36 37  1  0  0  0  0
 37 38  1  0  0  0  0
 37 39  1  0  0  0  0
 39 40  1  0  0  0  0
 34 40  1  0  0  0  0
 28 41  1  0  0  0  0
 41 42  1  0  0  0  0
 42 43  1  0  0  0  0
 43 44  1  0  0  0  0
 44 45  1  0  0  0  0
 45 46  1  0  0  0  0
 46 47  1  0  0  0  0
 46 48  1  0  0  0  0
 42 48  1  0  0  0  0
M  CHG  1  39   1
M  END
> <coconut_id>
CNP0478792

> <inchi>
InChI=1S/C35H36N2O11/c1-46-20-12-23-27(24(13-20)47-35-34(45)33(44)31(42)25(15-38)48-35)32(43)28-22(29(23)40)11-18(7-5-16-6-8-26(36)37-14-16)21(30(28)41)10-17-3-2-4-19(39)9-17/h2-4,6,8-9,11-14,25,31,33-35,38-39,41-42,44-45H,5,7,10,15,36-37H2,1H3/q+1

> <inchikey>
ZZYJMXZJSSMFDQ-UHFFFAOYSA-N

> <SMILES>
O=C1[C]2[CH][C](OC)[CH][C](OC3OC(CO)C(O)C(O)C3O)[C]2C(=O)[C]4[C](O)[C]([C]([CH][C]14)CC[C]5[CH][CH][C](N)[NH2+][CH]5)C[C]6[CH][CH][CH][C](O)[CH]6

> <sugar_free_smiles>
O=C1C2CC(OC)CC(O)C2C(=O)C3C(O)C(CC4CCCC(O)C4)C(CCC5CCC(N)[NH2+]C5)CC13

> <molecular_formula>
[C35H36N2O11]+

> <molecular_weight>
660.6684841426436

> <citationDOI>
[]

> <textTaxa>
[notax]

> <name>


> <synonyms>
[]

> <NPL_score>
2.025681624891878

> <number_of_carbons>
35

> <number_of_nitrogens>
2

> <number_of_oxygens>
11

> <number_of_rings>


> <total_atom_number>
84

> <bond_count>
53

> <found_in_databases>
[supernatural2]

> <murko_framework>
N1CCCC(C1)CCC2CC3CC4CCCCC4CC3CC2CC5CCCCC5

> <alogp>
-4.7395999999999985

> <apol>
96.62654799999999

> <topoPSA>
225.84

