
  CDK     04252213412D

 31 34  0  0  0  0  0  0  0  0999 V2000
   10.5555    6.1074    0.0000 O   0  0  0  0  0  0  0  0  0  0  0  0
    9.5655    7.2342    0.0000 C   0  0  0  0  0  0  0  0  0  0  0  0
   10.0464    8.6551    0.0000 O   0  0  0  0  0  0  0  0  0  0  0  0
    8.0946    6.9403    0.0000 C   0  0  0  0  0  0  0  0  0  0  0  0
    7.1046    8.0672    0.0000 O   0  0  0  0  0  0  0  0  0  0  0  0
    7.6137    5.5195    0.0000 C   0  0  0  0  0  0  0  0  0  0  0  0
    8.6037    4.3926    0.0000 O   0  0  0  0  0  0  0  0  0  0  0  0
    6.1427    5.2256    0.0000 C   0  0  0  0  0  0  0  0  0  0  0  0
    5.6618    3.8047    0.0000 C   0  0  0  0  0  0  0  0  0  0  0  0
    4.1909    3.5108    0.0000 C   0  0  0  0  0  0  0  0  0  0  0  0
    3.2009    4.6377    0.0000 C   0  0  0  0  0  0  0  0  0  0  0  0
    3.7100    2.0900    0.0000 C   0  0  0  0  0  0  0  0  0  0  0  0
    4.5500    0.8800    0.0000 C   0  0  0  0  0  0  0  0  0  0  0  0
    3.7100   -0.3100    0.0000 C   0  0  0  0  0  0  0  0  0  0  0  0
    2.2800    0.1600    0.0000 C   0  0  0  0  0  0  0  0  0  0  0  0
    1.0100   -0.5600    0.0000 C   0  0  0  0  0  0  0  0  0  0  0  0
    1.0100   -2.0900    0.0000 C   0  0  0  0  0  0  0  0  0  0  0  0
   -0.3200   -2.8400    0.0000 C   0  0  0  0  0  0  0  0  0  0  0  0
   -1.6200   -2.0900    0.0000 C   0  0  0  0  0  0  0  0  0  0  0  0
   -2.8900   -2.8400    0.0000 C   0  0  0  0  0  0  0  0  0  0  0  0
   -4.2000   -2.0900    0.0000 C   0  0  0  0  0  0  0  0  0  0  0  0
   -5.4977   -2.8424    0.0000 O   0  0  0  0  0  0  0  0  0  0  0  0
   -4.2000   -0.5600    0.0000 C   0  0  0  0  0  0  0  0  0  0  0  0
   -2.8900    0.1600    0.0000 C   0  0  0  0  0  0  0  0  0  0  0  0
   -1.6200   -0.5600    0.0000 C   0  0  0  0  0  0  0  0  0  0  0  0
   -1.6125    0.9400    0.0000 C   0  0  0  0  0  0  0  0  0  0  0  0
   -0.3200    0.1600    0.0000 C   0  0  0  0  0  0  0  0  0  0  0  0
   -0.3200    1.6300    0.0000 C   0  0  0  0  0  0  0  0  0  0  0  0
    1.0100    2.3900    0.0000 C   0  0  0  0  0  0  0  0  0  0  0  0
    2.2800    1.6300    0.0000 C   0  0  0  0  0  0  0  0  0  0  0  0
    2.4507    3.1203    0.0000 C   0  0  0  0  0  0  0  0  0  0  0  0
  1  2  2  0  0  0  0
  2  3  1  0  0  0  0
  2  4  1  0  0  0  0
  4  5  1  0  0  0  0
  4  6  1  0  0  0  0
  6  7  1  0  0  0  0
  6  8  1  0  0  0  0
  8  9  1  0  0  0  0
  9 10  1  0  0  0  0
 10 11  1  0  0  0  0
 10 12  1  0  0  0  0
 12 13  1  0  0  0  0
 13 14  1  0  0  0  0
 14 15  1  0  0  0  0
 15 16  1  0  0  0  0
 16 17  1  0  0  0  0
 17 18  1  0  0  0  0
 18 19  1  0  0  0  0
 19 20  1  0  0  0  0
 20 21  1  0  0  0  0
 21 22  1  0  0  0  0
 21 23  1  0  0  0  0
 23 24  1  0  0  0  0
 24 25  1  0  0  0  0
 19 25  1  0  0  0  0
 25 26  1  0  0  0  0
 25 27  1  0  0  0  0
 16 27  1  0  0  0  0
 27 28  1  0  0  0  0
 28 29  1  0  0  0  0
 29 30  1  0  0  0  0
 12 30  1  0  0  0  0
 15 30  1  0  0  0  0
 30 31  1  0  0  0  0
M  END
> <coconut_id>
CNP0070842

> <inchi>
InChI=1S/C26H44O5/c1-15(4-9-22(28)23(29)24(30)31)19-7-8-20-18-6-5-16-14-17(27)10-12-25(16,2)21(18)11-13-26(19,20)3/h15-23,27-29H,4-14H2,1-3H3,(H,30,31)

> <inchikey>
NRDKNLGDNLHWHG-UHFFFAOYSA-N

> <SMILES>
O=C(O)C(O)C(O)CCC(C)C1CCC2C3CCC4CC(O)CCC4(C)C3CCC12C

> <sugar_free_smiles>
O=C(O)C(O)C(O)CCC(C)C1CCC2C3CCC4CC(O)CCC4(C)C3CCC12C

> <molecular_formula>
C26H44O5

> <molecular_weight>
436.6255511226696

> <citationDOI>
[]

> <textTaxa>
[notax]

> <name>
2,3-dihydroxy-6-{7-hydroxy-9a,11a-dimethyl-hexadecahydro-1H-cyclopenta[a]phenanthren-1-yl}heptanoic acid

> <synonyms>
[]

> <NPL_score>
2.764526576080273

> <number_of_carbons>
26

> <number_of_nitrogens>
0

> <number_of_oxygens>
5

> <number_of_rings>


> <total_atom_number>
75

> <bond_count>
34

> <found_in_databases>
[fooddb, supernatural2]

> <murko_framework>
C1CCC2C(C1)CCC3C4CCCC4CCC23

> <alogp>
4.423699999999998

> <apol>
79.10889199999997

> <topoPSA>
97.99000000000001

