
  CDK     04252213472D

 33 36  0  0  0  0  0  0  0  0999 V2000
    5.9187   -2.6902    0.0000 O   0  0  0  0  0  0  0  0  0  0  0  0
    5.9189   -1.1902    0.0000 C   0  0  0  0  0  0  0  0  0  0  0  0
    7.2181   -0.4404    0.0000 N   0  0  0  0  0  0  0  0  0  0  0  0
    4.6200   -0.4400    0.0000 C   0  0  0  0  0  0  0  0  0  0  0  0
    4.6200    1.0600    0.0000 C   0  0  0  0  0  0  0  0  0  0  0  0
    5.9189    1.8102    0.0000 O   0  0  0  0  0  0  0  0  0  0  0  0
    3.3200    1.8100    0.0000 C   0  0  0  0  0  0  0  0  0  0  0  0
    3.3200    3.3100    0.0000 N   0  0  0  0  0  0  0  0  0  0  0  0
    4.6190    4.0600    0.0000 C   0  0  0  0  0  0  0  0  0  0  0  0
    2.0210    4.0600    0.0000 C   0  0  0  0  0  0  0  0  0  0  0  0
    2.0200    1.0600    0.0000 C   0  0  0  0  0  0  0  0  0  0  0  0
    0.7200    1.8100    0.0000 C   0  0  0  0  0  0  0  0  0  0  0  0
   -0.5800    1.0600    0.0000 C   0  0  0  0  0  0  0  0  0  0  0  0
   -1.8800    1.8100    0.0000 C   0  0  0  0  0  0  0  0  0  0  0  0
   -3.1700    1.0600    0.0000 C   0  0  0  0  0  0  0  0  0  0  0  0
   -3.1700   -0.4400    0.0000 C   0  0  0  0  0  0  0  0  0  0  0  0
   -1.8800   -1.1900    0.0000 C   0  0  0  0  0  0  0  0  0  0  0  0
   -1.8825   -2.6900    0.0000 O   0  0  0  0  0  0  0  0  0  0  0  0
   -0.5800   -0.4400    0.0000 C   0  0  0  0  0  0  0  0  0  0  0  0
    0.7200   -1.1900    0.0000 C   0  0  0  0  0  0  0  0  0  0  0  0
    0.7200   -2.6900    0.0000 O   0  0  0  0  0  0  0  0  0  0  0  0
    2.0200   -0.4400    0.0000 C   0  0  0  0  0  0  0  0  0  0  0  0
    2.0200   -1.9400    0.0000 O   0  0  0  0  0  0  0  0  0  0  0  0
    3.3200   -1.1900    0.0000 C   0  0  0  0  0  0  0  0  0  0  0  0
    3.3200   -2.6900    0.0000 O   0  0  0  0  0  0  0  0  0  0  0  0
   -4.4700   -1.1900    0.0000 C   0  0  0  0  0  0  0  0  0  0  0  0
   -4.4700   -2.6900    0.0000 O   0  0  0  0  0  0  0  0  0  0  0  0
   -5.7700   -0.4400    0.0000 C   0  0  0  0  0  0  0  0  0  0  0  0
   -5.7700    1.0600    0.0000 C   0  0  0  0  0  0  0  0  0  0  0  0
   -4.4700    1.8100    0.0000 C   0  0  0  0  0  0  0  0  0  0  0  0
   -4.4700    3.3100    0.0000 N   0  0  0  0  0  0  0  0  0  0  0  0
   -5.7690    4.0600    0.0000 C   0  0  0  0  0  0  0  0  0  0  0  0
   -3.1710    4.0600    0.0000 C   0  0  0  0  0  0  0  0  0  0  0  0
  1  2  2  0  0  0  0
  2  3  1  0  0  0  0
  2  4  1  0  0  0  0
  4  5  1  0  0  0  0
  5  6  2  0  0  0  0
  5  7  1  0  0  0  0
  7  8  1  0  0  0  0
  8  9  1  0  0  0  0
  8 10  1  0  0  0  0
  7 11  1  0  0  0  0
 11 12  1  0  0  0  0
 12 13  1  0  0  0  0
 13 14  1  0  0  0  0
 14 15  1  0  0  0  0
 15 16  2  0  0  0  0
 16 17  1  0  0  0  0
 17 18  2  0  0  0  0
 17 19  1  0  0  0  0
 13 19  1  0  0  0  0
 19 20  1  0  0  0  0
 20 21  2  0  0  0  0
 20 22  1  0  0  0  0
 11 22  1  0  0  0  0
 22 23  1  0  0  0  0
 22 24  1  0  0  0  0
  4 24  1  0  0  0  0
 24 25  2  0  0  0  0
 16 26  1  0  0  0  0
 26 27  1  0  0  0  0
 26 28  2  0  0  0  0
 28 29  1  0  0  0  0
 29 30  2  0  0  0  0
 15 30  1  0  0  0  0
 30 31  1  0  0  0  0
 31 32  1  0  0  0  0
 31 33  1  0  0  0  0
M  END
> <coconut_id>
CNP0478797

> <inchi>
InChI=1S/C23H27N3O7/c1-25(2)12-5-6-13(27)15-10(12)7-9-8-11-17(26(3)4)19(29)16(22(24)32)21(31)23(11,33)20(30)14(9)18(15)28/h5-6,9,11,14,16-17,27,33H,7-8H2,1-4H3,(H2,24,32)

> <inchikey>
ZZZRUAITSXLWBH-UHFFFAOYSA-N

> <SMILES>
O=C(N)C1C(=O)C(N(C)C)C2CC3CC4=C(C(=O)C3C(=O)C2(O)C1=O)C(O)=CC=C4N(C)C

> <sugar_free_smiles>
O=C(N)C1C(=O)C(N(C)C)C2CC3CC4=C(C(=O)C3C(=O)C2(O)C1=O)C(O)=CC=C4N(C)C

> <molecular_formula>
C23H27N3O7

> <molecular_weight>
457.477270093514

> <citationDOI>
[]

> <textTaxa>
[notax]

> <name>


> <synonyms>
[]

> <NPL_score>
1.4078746908224573

> <number_of_carbons>
23

> <number_of_nitrogens>
3

> <number_of_oxygens>
7

> <number_of_rings>


> <total_atom_number>
60

> <bond_count>
36

> <found_in_databases>
[gnps]

> <murko_framework>
c1ccc2c(c1)CC3CC4CCCCC4CC3C2

> <alogp>
-1.6968000000000019

> <apol>
67.39741099999996

> <topoPSA>
158.31

