
  CDK     04252213472D

 25 26  0  0  0  0  0  0  0  0999 V2000
   -2.5987    2.0402    0.0000 O   0  5  0  0  0  0  0  0  0  0  0  0
   -2.5989    0.5402    0.0000 N   0  3  0  0  0  0  0  0  0  0  0  0
   -3.8981   -0.2096    0.0000 O   0  0  0  0  0  0  0  0  0  0  0  0
   -1.3000   -0.2100    0.0000 C   0  0  0  0  0  0  0  0  0  0  0  0
   -1.3000   -1.7100    0.0000 C   0  0  0  0  0  0  0  0  0  0  0  0
   -0.0000   -2.4600    0.0000 N   0  0  0  0  0  0  0  0  0  0  0  0
    1.3000   -1.7100    0.0000 C   0  0  0  0  0  0  0  0  0  0  0  0
    1.3000   -0.2100    0.0000 C   0  0  0  0  0  0  0  0  0  0  0  0
    2.5989    0.5402    0.0000 C   0  0  0  0  0  0  0  0  0  0  0  0
    2.5987    2.0402    0.0000 O   0  0  0  0  0  0  0  0  0  0  0  0
    3.8981   -0.2096    0.0000 O   0  0  0  0  0  0  0  0  0  0  0  0
    5.1970    0.5406    0.0000 C   0  0  0  0  0  0  0  0  0  0  0  0
   -0.0000    0.5400    0.0000 C   0  0  0  0  0  0  0  0  0  0  0  0
    0.0000    3.0000    0.0000 C   0  0  0  0  0  0  0  0  0  0  0  0
    1.2913    3.7478    0.0000 C   0  0  0  0  0  0  0  0  0  0  0  0
    1.2938    5.2478    0.0000 C   0  0  0  0  0  0  0  0  0  0  0  0
    0.0050    6.0000    0.0000 C   0  0  0  0  0  0  0  0  0  0  0  0
   -1.2962    5.2522    0.0000 C   0  0  0  0  0  0  0  0  0  0  0  0
   -1.2987    3.7522    0.0000 C   0  0  0  0  0  0  0  0  0  0  0  0
   -2.5989    3.0041    0.0000 C   0  0  0  0  0  0  0  0  0  0  0  0
   -3.3469    4.3043    0.0000 F   0  0  0  0  0  0  0  0  0  0  0  0
   -3.8991    2.2561    0.0000 F   0  0  0  0  0  0  0  0  0  0  0  0
   -1.8509    1.7040    0.0000 F   0  0  0  0  0  0  0  0  0  0  0  0
    2.5989   -2.4602    0.0000 C   0  0  0  0  0  0  0  0  0  0  0  0
   -2.5989   -2.4602    0.0000 C   0  0  0  0  0  0  0  0  0  0  0  0
  1  2  1  0  0  0  0
  2  3  1  0  0  0  0
  2  4  1  0  0  0  0
  4  5  2  0  0  0  0
  5  6  1  0  0  0  0
  6  7  2  0  0  0  0
  7  8  1  0  0  0  0
  8  9  2  0  0  0  0
  9 10  1  4  0  0  0
  9 11  1  0  0  0  0
 11 12  1  0  0  0  0
  8 13  1  0  0  0  0
  4 13  1  0  0  0  0
 13 14  1  0  0  0  0
 14 15  1  0  0  0  0
 15 16  2  0  0  0  0
 16 17  1  0  0  0  0
 17 18  2  0  0  0  0
 18 19  1  0  0  0  0
 14 19  2  0  0  0  0
 19 20  1  0  0  0  0
 20 21  1  0  0  0  0
 20 22  1  0  0  0  0
 20 23  1  0  0  0  0
  7 24  1  0  0  0  0
  5 25  1  0  0  0  0
M  CHG  1   1  -1
M  CHG  1   2   1
M  END
> <coconut_id>
CNP0478793

> <inchi>
InChI=1S/C16H17F3N2O4/c1-8-12(15(22)25-3)13(14(21(23)24)9(2)20-8)10-6-4-5-7-11(10)16(17,18)19/h4-7,13,21-23H,1-3H3

> <inchikey>
ZZYQPIUUJAJJOZ-UHFFFAOYSA-N

> <SMILES>
[O-][NH+](O)C1=C(N=C(C(=C(O)OC)C1C=2C=CC=CC2C(F)(F)F)C)C

> <sugar_free_smiles>
[O-][NH+](O)C1=C(N=C(C(=C(O)OC)C1C=2C=CC=CC2C(F)(F)F)C)C

> <molecular_formula>
C16H17F3N2O4

> <molecular_weight>
358.3130029479959

> <citationDOI>
[]

> <textTaxa>
[notax]

> <name>


> <synonyms>
[]

> <NPL_score>
0.05319688877312173

> <number_of_carbons>
16

> <number_of_nitrogens>
2

> <number_of_oxygens>
4

> <number_of_rings>


> <total_atom_number>
42

> <bond_count>
26

> <found_in_databases>
[gnps]

> <murko_framework>
N=1C=CC(c2ccccc2)CC1

> <alogp>
1.1844000000000012

> <apol>
46.574481000000006

> <topoPSA>
89.55000000000001

