
  CDK     04252213472D

 44 48  0  0  0  0  0  0  0  0999 V2000
   11.6977    1.4977    0.0000 O   0  0  0  0  0  0  0  0  0  0  0  0
   10.3986    0.7479    0.0000 C   0  0  0  0  0  3  0  0  0  0  0  0
   10.3981   -0.7521    0.0000 C   0  0  0  0  0  3  0  0  0  0  0  0
    9.0978   -1.5017    0.0000 C   0  0  0  0  0  3  0  0  0  0  0  0
    9.0974   -3.0017    0.0000 O   0  0  0  0  0  0  0  0  0  0  0  0
    7.7981   -0.7512    0.0000 C   0  0  0  0  0  3  0  0  0  0  0  0
    6.4978   -1.5008    0.0000 C   0  0  0  0  0  3  0  0  0  0  0  0
    5.1981   -0.7504    0.0000 C   0  0  0  0  0  3  0  0  0  0  0  0
    3.8989   -1.5002    0.0000 O   0  0  0  0  0  0  0  0  0  0  0  0
    3.8987   -3.0002    0.0000 C   0  0  0  0  0  0  0  0  0  0  0  0
    5.2107   -3.7640    0.0000 O   0  0  0  0  0  0  0  0  0  0  0  0
    5.2161   -5.2649    0.0000 C   0  0  0  0  0  0  0  0  0  0  0  0
    6.5178   -6.0104    0.0000 C   0  0  0  0  0  0  0  0  0  0  0  0
    6.5229   -7.5104    0.0000 O   0  0  0  0  0  0  0  0  0  0  0  0
    3.9282   -6.0141    0.0000 C   0  0  0  0  0  0  0  0  0  0  0  0
    3.9372   -7.5141    0.0000 O   0  0  0  0  0  0  0  0  0  0  0  0
    2.6176   -5.2726    0.0000 C   0  0  0  0  0  0  0  0  0  0  0  0
    1.3235   -6.0312    0.0000 O   0  0  0  0  0  0  0  0  0  0  0  0
    2.6108   -3.7495    0.0000 C   0  0  0  0  0  0  0  0  0  0  0  0
    1.3088   -3.0045    0.0000 O   0  0  0  0  0  0  0  0  0  0  0  0
    0.0127   -3.7596    0.0000 C   0  0  0  0  0  0  0  0  0  0  0  0
    0.0183   -5.2604    0.0000 O   0  0  0  0  0  0  0  0  0  0  0  0
   -1.2782   -6.0165    0.0000 C   0  0  0  0  0  0  0  0  0  0  0  0
   -2.5802   -5.2717    0.0000 C   0  0  0  0  0  0  0  0  0  0  0  0
   -3.8763   -6.0268    0.0000 O   0  0  0  0  0  0  0  0  0  0  0  0
   -2.5858   -3.7709    0.0000 C   0  0  0  0  0  0  0  0  0  0  0  0
   -3.8879   -3.0262    0.0000 O   0  0  0  0  0  0  0  0  0  0  0  0
   -1.2894   -3.0148    0.0000 C   0  0  0  0  0  0  0  0  0  0  0  0
   -1.2957   -1.5148    0.0000 O   0  0  0  0  0  0  0  0  0  0  0  0
    5.1986    0.7496    0.0000 C   0  0  0  0  0  3  0  0  0  0  0  0
    6.4988    1.4992    0.0000 O   0  3  0  0  0  0  0  0  0  0  0  0
    7.7986    0.7488    0.0000 C   0  0  0  0  0  3  0  0  0  0  0  0
    9.0988    1.4983    0.0000 C   0  0  0  0  0  3  0  0  0  0  0  0
    3.8999    1.5002    0.0000 C   0  0  0  0  0  3  0  0  0  0  0  0
    2.6000    0.7500    0.0000 C   0  0  0  0  0  3  0  0  0  0  0  0
    1.3013    1.5006    0.0000 C   0  0  0  0  0  3  0  0  0  0  0  0
    0.0018    0.7515    0.0000 O   0  0  0  0  0  0  0  0  0  0  0  0
   -1.2968    1.5023    0.0000 C   0  0  0  0  0  0  0  0  0  0  0  0
    1.3025    3.0015    0.0000 C   0  0  0  0  0  3  0  0  0  0  0  0
    0.0038    3.7521    0.0000 O   0  0  0  0  0  0  0  0  0  0  0  0
    2.6024    3.7517    0.0000 C   0  0  0  0  0  3  0  0  0  0  0  0
    2.6029    5.2517    0.0000 O   0  0  0  0  0  0  0  0  0  0  0  0
    1.3041    6.0021    0.0000 C   0  0  0  0  0  0  0  0  0  0  0  0
    3.9011    3.0010    0.0000 C   0  0  0  0  0  3  0  0  0  0  0  0
  1  2  1  0  0  0  0
  2  3  1  0  0  0  0
  3  4  1  0  0  0  0
  4  5  1  0  0  0  0
  4  6  1  0  0  0  0
  6  7  1  0  0  0  0
  7  8  1  0  0  0  0
  8  9  1  0  0  0  0
  9 10  1  0  0  0  0
 10 11  1  0  0  0  0
 11 12  1  0  0  0  0
 12 13  1  0  0  0  0
 13 14  1  0  0  0  0
 12 15  1  0  0  0  0
 15 16  1  0  0  0  0
 15 17  1  0  0  0  0
 17 18  1  0  0  0  0
 17 19  1  0  0  0  0
 10 19  1  0  0  0  0
 19 20  1  0  0  0  0
 20 21  1  0  0  0  0
 21 22  1  0  0  0  0
 22 23  1  0  0  0  0
 23 24  1  0  0  0  0
 24 25  1  0  0  0  0
 24 26  1  0  0  0  0
 26 27  1  0  0  0  0
 26 28  1  0  0  0  0
 21 28  1  0  0  0  0
 28 29  1  0  0  0  0
  8 30  1  0  0  0  0
 30 31  1  0  0  0  0
 31 32  1  0  0  0  0
  6 32  1  0  0  0  0
 32 33  1  0  0  0  0
  2 33  1  0  0  0  0
 30 34  1  0  0  0  0
 34 35  1  0  0  0  0
 35 36  1  0  0  0  0
 36 37  1  0  0  0  0
 37 38  1  0  0  0  0
 36 39  1  0  0  0  0
 39 40  1  0  0  0  0
 39 41  1  0  0  0  0
 41 42  1  0  0  0  0
 42 43  1  0  0  0  0
 41 44  1  0  0  0  0
 34 44  1  0  0  0  0
M  CHG  1  31   1
M  END
> <coconut_id>
CNP0478796

> <inchi>
InChI=1S/C28H34O16/c1-38-16-3-10(4-17(39-2)21(16)34)25-18(7-12-13(31)5-11(30)6-15(12)41-25)42-28-26(23(36)22(35)19(8-29)43-28)44-27-24(37)20(33)14(32)9-40-27/h3-7,14,19-20,22-24,26-37,41H,8-9H2,1-2H3/q+1

> <inchikey>
ZZZIZAPJSYVNGS-UHFFFAOYSA-N

> <SMILES>
O[C]1[CH][C](O)[C]2[CH][C](OC3OC(CO)C(O)C(O)C3OC4OCC(O)C(O)C4O)[C]([OH+][C]2[CH]1)[C]5[CH][C](OC)[C](O)[C](OC)[CH]5

> <sugar_free_smiles>
OC1CC(O)C2CC(O)C([OH+]C2C1)C3CC(OC)C(O)C(OC)C3

> <molecular_formula>
[C28H34O16]+

> <molecular_weight>
626.561069581251

> <citationDOI>
[]

> <textTaxa>
[notax]

> <name>


> <synonyms>
[]

> <NPL_score>
1.753813617574363

> <number_of_carbons>
28

> <number_of_nitrogens>
0

> <number_of_oxygens>
16

> <number_of_rings>


> <total_atom_number>
78

> <bond_count>
48

> <found_in_databases>
[supernatural2]

> <murko_framework>
O1C2CCCCC2CCC1C3CCCCC3

> <alogp>
-4.927899999999999

> <apol>
84.782962

> <topoPSA>
237.44999999999993

